/*--------------------------------*- C++ -*----------------------------------*\
  =========                 |
  \\      /  F ield         | OpenFOAM: The Open Source CFD Toolbox
   \\    /   O peration     | Website:  https://openfoam.org
    \\  /    A nd           | Version:  7  
     \\/     M anipulation  |
\*---------------------------------------------------------------------------*/
FoamFile
{
    version     2.0;
    format      ascii;
    class       volScalarField;
    object      p_rgh;
}
// * * * * * * * * * * * * * * * * * * * * * * * * * * * * * * * * * * * * * //

dimensions      [1 -1 -2 0 0 0 0];

internalField   uniform 0;

boundaryField
{
    coolingWall
    {
        type            fixedFluxPressure;
        rho             rhok;
        value           $internalField;
    }

    heatingWall
    {
        type            fixedFluxPressure;
        rho             rhok;
        value           $internalField;
    }

    insulated
    {
        type            fixedFluxPressure;
        rho             rhok;
        value           $internalField;
    }
}

// ************************************************************************* //
